*r1q* --- 1-D radial test problem for flowing wellbore pressure
MESHMAKER1----*----2----*----3----*----4----*----5----*----6----*----7----*----8
RZ2D
RADII
    2
        0.      100.
EQUID
   20            10.
LOGAR
   30           1.E3
LOGAR
   30           1.E4
EQUID
    1            0.0
LAYER----1----*----2----*----3----*----4----*----5----*----6----*----7----*----8
    1
      500.
 
ROCKS----1----*----2----*----3----*----4----*----5----*----6----*----7----*----8
POMED          2600.       .10    1.e-13    1.e-13    1.e-13       2.0    1000.0
 
START----1----*----2----*----3----*----4----*----5----*----6----*----7----*----8
----*----1 MOP: 123456789*123456789*1234 ---*----5----*----6----*----7----*----8
PARAM----1----*----2----*----3----*----4----*----5----*----6----*----7----*----8
   1 100     100100  000000002 30 0 3
                1.e9       -1.
      1.E5      
     1.E-5     1.E00                                   1.E-7
               60.E5                0.10
RPCAP----1----*----2----*----3----*----4----*----5----*----6----*----7----*----8
    3     .30       .05
    1               1.
FOFT ----1----*----2----*----3----*----4----*----5----*----6----*----7----*----8
A1  1

GOFT ----1----*----2----*----3----*----4----*----5----*----6----*----7----*----8

INCON----1----*----2----*----3----*----4----*----5----*----6----*----7----*----8
 
GENER----1----*----2----*----3----*----4----*----5----*----6----*----7----*----8
A1  1wel 1                         f725d  4.64e-11
 
ENDCY----1----*----2----*----3----*----4----*----5----*----6----*----7----*----8
GENER----1----*----2----*----3----*----4----*----5----*----6----*----7----*----8
A1  1wel 1                         DELV   4.64e-11 .5737E+07

CONNE
A1  1A1  2                   1 .5000E+00 .5000E+01 .3142E+06

