EOS7c problem
ROCKS----1----+----2----+----3----+----4----+----5----+----6----+----7----+----8
vados    2     2400.       0.3  1.00E-12  1.00E-12  1.00E-12      1.73     935.8
  1.00E-10                            1.
    7            0.2       0.1        1.      0.01
    7            0.2      0.11    8.5e-4     1.e10        1.
tpbnd    2     2400.       0.3  1.00E-12  1.00E-12  1.00E-12      1.73      1.e5
  1.00E-10                            1.
    7            0.2       0.1        1.      0.01
    7            0.2      0.11    8.5e-4     1.e10        1.
btbnd    2     2400.       0.3  1.00E-12  1.00E-12  1.00E-12      1.73      1.e5
  1.00E-10                            1.
    7            0.2       0.1        1.      0.01
    7            0.2      0.11    8.5e-4     1.e10        1.
sdbnd    2     2400.       0.3  1.00E-12  1.00E-12  1.00E-12      1.73      1.e5
  1.00E-10                            1.
    7            0.2       0.1        1.      0.01
    7            0.2      0.11    8.5e-4     1.e10        1.
wt       2     2400.       0.3  1.00E-12  1.00E-12  1.00E-12      1.73     935.8
  1.00E-10                            1.
    5     
    1             0.        0.        1.
 
PARAM           123456789012345678901234
 8 3  10      1010000010002000040  03000  0.00e-05
          4.3200E+04        1.                        9.8066  
     1.e-4
        1.000000E+05        0.000000E+00        0.000000E+00        0.000000E+00
        1.050000E+01        1.500000E+01
 
TIMES----1----+----2----+----3----+----4----+----5----+----6----+----7----+----8
    3    1
 4.320e+04 8.640E+04 4.320e+05
 
MULTI----1----+----2----+----3----+----4----+----5----+----6----+----7----+----8
    5    5    2    8
 
SELEC----1----+----2----+----3----+----4----+----5----+----6----+----7----+----8
    6                                                                     1    1
 
 
 
0.0000E+000.0000E+000.0000E+000.0000E+000.0000E+000.0000E+00
0.0000E+000.0000E+000.0000E+000.0000E+00                    0.0000E+00
-.3303E+060.2220E+030.0000E+000.0000E+00                    0.1000E-07
 
DIFFU----1----+----2----+----3----+----4----+----5----+----6----+----7----+----8
 1.000E-05 1.000E-10
 1.000E-05 1.000E-10
 1.550E-05 1.000E-10
 1.000E-05 1.000E-10
 1.000E-05 1.000E-10
 
FOFT ----1----+----2----+----3----+----4----+----5----+----6----+----7----+----8
A12 1
AV1 1
 
COFT ----1----+----2----+----3----+----4----+----5----+----6----+----7----+----8
A11 1A12 1

 
START----1----+----2----+----3----+----4----+----5----+----6----+----7----+----8
 
GENER----1----+----2----+----3----+----4----+----5----+----6----+----7----+----8
AQ1 1GEN 1                         COM3 2.8100E-051.0000E+04
  
 
ENDCY
MESHMAKER1----*----2----*----3----*----4----*----5----*----6----*----7----*----8
XYZ
      0.00
NX       1        1.
NY       1       .05
NY      49        .1
NZ       1     1.e-9
NZ      50        .1
NZ       1     2.e-9


ENDFI----1----+----2----+----3----+----4----+----5----+----6----+----7----+----8

 
ENDCY
