*rfp* - 36 BLOCKS PARALLEL FIVE-SPOT GRID (CF. SPE-18426)
ROCKS----1----*----2----*----3----*----4----*----5----*----6----*----7----*----8
POMED          2650.       .01    6.E-15    6.E-15    6.E-15       2.1     1000.
FRACT          2650.       .50    6.E-15    6.E-15    6.E-15       2.1     1000.
MATRX          2650.    1.E-10    0.E-15    0.E-15    0.E-15       2.1     1000.

START----1----*----2----*----3----*----4----*----5----*----6----*----7----*----8
----*----1 MOP: 123456789*123456789*1234 ---*----5----*----6----*----7----*----8
PARAM----1----*----2----*----3----*----4----*----5----*----6----*----7----*----8
   1  99      9900000000000000 4 0
          1.151852E9       -1. 3.15576E7 KA 1
      1.E5
     1.E-5                                             1.E-8
                300.                0.01                5.E5
RPCAP----1----*----2----*----3----*----4----*----5----*----6----*----7----*----8
    3     .30       .05
    1               1.
TIMES----1----*----2----*----3----*----4----*----5----*----6----*----7----*----8
    2    2
 1.57788E8 7.88940E8
GENER----1----*----2----*----3----*----4----*----5----*----6----*----7----*----8
 AA 1INJ 1                         MASS       3.75     5.0E5
 KA 1PRO 1                         MASS      -3.75

INCON----1----*----2----*----3----*----4----*----5----*----6----*----7----*----8

ENDCY----1----*----2----*----3----*----4----*----5----*----6----*----7----*----8
